/*--------------------------------*- C++ -*----------------------------------*\
| =========                 |                                                 |
| \\      /  F ield         | OpenFOAM: The Open Source CFD Toolbox           |
|  \\    /   O peration     | Version:  dev                                   |
|   \\  /    A nd           | Website:  www.openfoam.com                      |
|    \\/     M anipulation  |                                                 |
\*---------------------------------------------------------------------------*/
FoamFile
{
    version     2.0;
    format      ascii;
    class       dictionary;
    location    "constant";
    object      laserProperties;
}
// * * * * * * * * * * * * * * * * * * * * * * * * * * * * * * * * * * * * * //

power           156;
power_
{
    type        sine;
    level       113;
    amplitude   50;
    period      1e-4;
    scale       1;
}

radius          47.5e-6; // 70.0e-6
velocity        ( 0.0 0 0 );
coordStart      ( 0 0 1e-4 );
timeStop        0.7e-3;

beam
{
    type        topHat; // topHat, Gaussian
    direction   ( 0 0 -1 );
    waveLength  1e-6;
}

source
{
    type    rayTracing; // rayTracing

    gradAlphaModel
    {
        absorption
        {
            type    constant; // biConstant
            absorptivity    0.40; //
        }
    }

    rayTracingModel
    {
        nRays           50;
        RcutByR         1.1;
        writeOBJ        true;
        useSubCellData  true;

        scattering
        {
            threshold   1e-5; // do not scatter if the particle energy contribution is lower
            type        Fresnel;
            n           3.7; // refractive index
            k           4.0; // absorptive index
        }
    }
}

// ************************************************************************* //
